** Translated using xdm 2.7.0 on Sep_12_2025_22_07_01_PM
** from /tmp/_MEIII1Asm/hspice.xml
** to /tmp/_MEIII1Asm/xyce.xml



.OPTIONS DEVICE TEMP=25 TNOM=25  ; converted options using xdm
** BSD 3-Clause License
*
* Copyright 2022 Lawrence T. Clark, Vinay Vashishtha, or Arizona State
* University
*
* Redistribution and use in source and binary forms, with or without
* modification, are permitted provided that the following conditions are met:
*
* 1. Redistributions of source code must retain the above copyright notice,
* this list of conditions and the following disclaimer.
*
* 2. Redistributions in binary form must reproduce the above copyright
* notice, this list of conditions and the following disclaimer in the
* documentation and/or other materials provided with the distribution.
*
* 3. Neither the name of the copyright holder nor the names of its
* contributors may be used to endorse or promote products derived from this
* software without specific prior written permission.
*
* THIS SOFTWARE IS PROVIDED BY THE COPYRIGHT HOLDERS AND CONTRIBUTORS "AS IS"
* AND ANY EXPRESS OR IMPLIED WARRANTIES, INCLUDING, BUT NOT LIMITED TO, THE
* IMPLIED WARRANTIES OF MERCHANTABILITY AND FITNESS FOR A PARTICULAR PURPOSE
* ARE DISCLAIMED. IN NO EVENT SHALL THE COPYRIGHT HOLDER OR CONTRIBUTORS BE
* LIABLE FOR ANY DIRECT, INDIRECT, INCIDENTAL, SPECIAL, EXEMPLARY, OR
* CONSEQUENTIAL DAMAGES (INCLUDING, BUT NOT LIMITED TO, PROCUREMENT OF
* SUBSTITUTE GOODS OR SERVICES; LOSS OF USE, DATA, OR PROFITS; OR BUSINESS
* INTERRUPTION) HOWEVER CAUSED AND ON ANY THEORY OF LIABILITY, WHETHER IN
* CONTRACT, STRICT LIABILITY, OR TORT (INCLUDING NEGLIGENCE OR OTHERWISE)
* ARISING IN ANY WAY OUT OF THE USE OF THIS SOFTWARE, EVEN IF ADVISED OF THE
* POSSIBILITY OF SUCH DAMAGE.
* Design:	A2O1A1Ixp33_ASAP7_75t_SRAM
* Created:	"Sat Jan 22 2022"
* Vendor:	"Mentor Graphics Corporation"
* Program:	"Calibre xACT 3D"
* Version:	"v2017.4_19.14"
* Corner Name: typical_27
* Nominal Temperature: 25C
* Circuit Temperature: 27C
*
* Integrated TICER reduction is not enabled.
* SHORT DELAY THRESHOLD: 2e-15
* Fill Mode: NG
* PEX REDUCE CC ABSOLUTE : 1
* PEX REDUCE CC RELATIVE : 0.01
* Delta transform mode : 344834
* .include "A2O1A1Ixp33_ASAP7_75t_SRAM.pex.sp.pex"
* Start of included file A2O1A1Ixp33_ASAP7_75t_SRAM.pex.sp.pex

.SUBCKT PM_A2O1A1Ixp33_ASAP7_75t_SRAM%A1 vss 16 5 11 4 3

C1 1 vss C=0.0052662f ;$X=0.081 $Y=0.1245
C2 3 vss C=0.106597f ;$X=0.081 $Y=0.0245
C3 4 vss C=0.0113645f ;$X=0.081 $Y=0.098
R1 16 15 R=1.92382
R2 14 15 R=3.90593

R3 4 14 R=8.62802

R4 13 14 R=19.3796 ;$a=3.24e-16 $layer=V0LIG $X=0.081 $Y=0.1355 $X2=0.081 $Y2=0.135

R5 1 8 R=4.22396
R6 1 13 R=6.49795

R7 11 10 R=14.6259

R8 9 10 R=2.7211

R9 8 9 R=5.79936

R10 7 8 R=5.79936

R11 6 7 R=2.7211

R12 5 6 R=14.6259

R13 5 3 R=14.6259

.ENDS

.SUBCKT PM_A2O1A1Ixp33_ASAP7_75t_SRAM%B vss 11 5 9 3 4

C1 1 vss C=0.00941254f ;$X=0.189 $Y=0.136
C2 3 vss C=0.0862482f ;$X=0.189 $Y=0.0245
C3 4 vss C=0.00832611f ;$X=0.189 $Y=0.0992
R1 12 13 R=3.08976
R2 11 12 R=1.10765

R3 11 4 R=4.37231

R4 1 7 R=10.4265

R5 1 13 R=19.3796 ;$a=3.24e-16 $layer=V0LIG $X=0.189 $Y=0.136 $X2=0.189 $Y2=0.136

R6 9 8 R=16.3266
R7 7 8 R=6.47963

R8 6 7 R=6.81977

R9 5 6 R=16.6668

R10 5 3 R=14.6259

.ENDS

.SUBCKT PM_A2O1A1Ixp33_ASAP7_75t_SRAM%8 vss 11 22 23 9 1 7 2 8

C1 1 vss C=0.0091934f ;$X=0.054 $Y=0.2025
C2 2 vss C=0.00622736f ;$X=0.162 $Y=0.2025
C3 7 vss C=0.0370023f ;$X=0.056 $Y=0.2025
C4 8 vss C=0.00316068f ;$X=0.1475 $Y=0.2025
C5 9 vss C=0.0132607f ;$X=0.0425 $Y=0.234
R1 23 21 R=0.0308642
R2 2 21 R=0.179012

R3 8 2 R=0.179012

R4 22 8 R=0.0308642

R5 2 18 R=19.3796 ;$a=3.24e-16 $layer=V0LISD $X=0.162 $Y=0.2025 $X2=0.162 $Y2=0.234

R6 17 18 R=3.14806
R7 16 17 R=3.14806

R8 15 16 R=6.29612

R9 14 15 R=6.29612

R10 13 14 R=3.14806

R11 12 13 R=3.14806

R12 9 12 R=2.68168

R13 1 12 R=19.3796

R14 11 10 R=0.0308642

R15 7 10 R=0.154321

R16 1 7 R=1e-05 ;$l=2e-09 $X=0.054 $Y=0.2025 $X2=0.056 $Y2=0.2025

.ENDS
.SUBCKT PM_A2O1A1Ixp33_ASAP7_75t_SRAM%Y vss 22 16 34 37 1 8 10 2 14 7

C1 1 vss C=0.00869557f ;$X=0.222 $Y=0.216
C2 2 vss C=0.0100733f ;$X=0.273 $Y=0.0675
C3 7 vss C=0.0368153f ;$X=0.2555 $Y=0.0675
C4 8 vss C=0.00195832f ;$X=0.2015 $Y=0.1975
C5 9 vss C=3.40073e-20 ;$X=0.2015 $Y=0.1755
C6 10 vss C=0.000332836f ;$X=0.2015 $Y=0.2245
C7 11 vss C=0.00446051f ;$X=0.2645 $Y=0.046
C8 12 vss C=0.00239027f ;$X=0.297 $Y=0.224
C9 13 vss C=0.0054032f ;$X=0.275 $Y=0.224
C10 14 vss C=0.00492909f ;$X=0.297 $Y=0.0625
R1 10 1 R=0.391892
R2 9 1 R=0.462963

R3 37 36 R=0.147059

R4 35 36 R=0.264706

R5 1 35 R=0.705882

R6 8 1 R=0.735294

R7 34 8 R=0.147059

R8 1 31 R=19.3796 ;$a=3.24e-16 $layer=V0LISD $X=0.222 $Y=0.216 $X2=0.2245 $Y2=0.224

R9 29 31 R=1.74892
R10 27 28 R=2.09871

R11 27 29 R=0.816164

R12 26 28 R=2.91487

R13 13 26 R=4.19742

R14 12 25 R=2.19852

R15 12 13 R=3.48106

R16 24 25 R=2.91487

R17 23 24 R=2.62338

R18 22 23 R=1.57403

R19 22 21 R=11.2514

R20 20 21 R=12.4174

R21 14 19 R=2.66732

R22 14 20 R=3.03147

R23 18 19 R=1.26818

R24 17 18 R=2.44849

R25 11 17 R=2.68168

R26 2 17 R=19.3796

R27 7 2 R=0.154321

R28 16 7 R=0.0308642

.ENDS

.SUBCKT PM_A2O1A1Ixp33_ASAP7_75t_SRAM%C vss 13 5 11 3 4 1

C1 1 vss C=0.00318508f ;$X=0.243 $Y=0.136
C2 3 vss C=0.083888f ;$X=0.243 $Y=0.0245
C3 4 vss C=0.00814279f ;$X=0.243 $Y=0.0817
R1 14 15 R=7.17059
R2 13 14 R=5.18847

R3 13 4 R=0.291487

R4 1 8 R=10.4265

R5 1 15 R=19.3796 ;$a=3.24e-16 $layer=V0LIG $X=0.243 $Y=0.136 $X2=0.243 $Y2=0.136

R6 11 10 R=14.6259
R7 9 10 R=7.1429

R8 8 9 R=5.62929

R9 7 8 R=5.96942

R10 6 7 R=2.89117

R11 5 6 R=14.6259

R12 5 3 R=14.6259

.ENDS

.SUBCKT PM_A2O1A1Ixp33_ASAP7_75t_SRAM%A2 vss 14 5 9 4 3

C1 1 vss C=0.0042368f ;$X=0.135 $Y=0.1355
C2 3 vss C=0.104057f ;$X=0.135 $Y=0.0245
C3 4 vss C=0.00981459f ;$X=0.135 $Y=0.0985
R1 14 13 R=0.874462
R2 12 13 R=2.85657

R3 4 12 R=8.74462

R4 1 7 R=10.1312

R5 1 12 R=19.3796 ;$a=3.24e-16 $layer=V0LIG $X=0.135 $Y=0.1355 $X2=0.135 $Y2=0.136

R6 9 8 R=16.3266
R7 7 8 R=6.47963

R8 6 7 R=6.81977

R9 5 6 R=16.6668

R10 5 3 R=14.6259

.ENDS

* End of included file A2O1A1Ixp33_ASAP7_75t_SRAM.pex.sp.pex


*



.SUBCKT A2O1A1Ixp33_ASAP7_75t_SRAM VSS VDD A1 A2 B C Y
*
* VSS VSS
* VDD VDD
* A1 A1
* A2 A2
* B B
* C C
* Y Y
*
*
M0 noxref_10 N_M0_g noxref_7 VSS nmos_sram L=2e-08 NFIN=3

M1 VSS N_M1_g noxref_10 VSS nmos_sram L=2e-08 NFIN=3 ;$X=0.125 $Y=0.027

M2 noxref_7 N_M2_g VSS VSS nmos_sram L=2e-08 NFIN=3 ;$X=0.179 $Y=0.027
M3 N_M3_d N_M3_g noxref_7 VSS nmos_sram L=2e-08 NFIN=3
M4 VDD N_M4_g N_M4_s VDD pmos_sram L=2e-08 NFIN=3 ;$X=0.071 $Y=0.162

M5 N_M5_d N_M5_g VDD VDD pmos_sram L=2e-08 NFIN=3 ;$X=0.125 $Y=0.162
M6 N_M6_d N_M6_g N_M6_s VDD pmos_sram L=2e-08 NFIN=3 ;$X=0.179 $Y=0.162
M7 VDD N_M7_g N_M7_s VDD pmos_sram L=2e-08 NFIN=2 ;$X=0.233 $Y=0.189
* .include "A2O1A1Ixp33_ASAP7_75t_SRAM.pex.sp.pxi"


* Start of included file A2O1A1Ixp33_ASAP7_75t_SRAM.pex.sp.pxi

X_PM_A2O1A1Ixp33_ASAP7_75t_SRAM%A1 vss A1 N_M0_g N_M4_g N_A1_4 N_A1_3 
+ PM_A2O1A1Ixp33_ASAP7_75t_SRAM%A1
X_PM_A2O1A1Ixp33_ASAP7_75t_SRAM%B vss B N_M2_g N_M6_g N_B_3 N_B_4 
+ PM_A2O1A1Ixp33_ASAP7_75t_SRAM%B
Cc_1 N_B_3 N_A2_3 C=0.00319368f ;$X=0.189 $Y=0.0245
Cc_2 N_B_4 N_A2_4 C=0.00624392f ;$X=0.189 $Y=0.0992
X_PM_A2O1A1Ixp33_ASAP7_75t_SRAM%8 
+ vss N_M4_s N_M5_d N_M6_s N_8_9 N_8_1 N_8_7 N_8_2 N_8_8 
+ PM_A2O1A1Ixp33_ASAP7_75t_SRAM%8
Cc_3 N_8_9 N_A1_3 C=0.00118734f ;$X=0.0425 $Y=0.234
Cc_4 N_8_1 N_A1_3 C=0.00141974f ;$X=0.054 $Y=0.2025
Cc_5 N_8_1 N_A1_4 C=0.0019158f ;$X=0.054 $Y=0.2025
Cc_6 N_8_7 N_A1_3 C=0.0348509f ;$X=0.056 $Y=0.2025
Cc_7 N_8_9 N_A2_3 C=0.0010615f ;$X=0.0425 $Y=0.234
Cc_8 N_8_2 N_A2_3 C=0.00115903f ;$X=0.162 $Y=0.2025
Cc_9 N_8_2 N_A2_4 C=0.00157901f ;$X=0.162 $Y=0.2025
Cc_10 N_8_8 N_A2_3 C=0.0344671f ;$X=0.1475 $Y=0.2025
Cc_11 N_8_2 N_B_4 C=0.000991331f ;$X=0.162 $Y=0.2025
Cc_12 N_8_2 N_B_3 C=0.00117561f ;$X=0.162 $Y=0.2025
Cc_13 N_8_8 N_B_3 C=0.0350085f ;$X=0.1475 $Y=0.2025
X_PM_A2O1A1Ixp33_ASAP7_75t_SRAM%Y 
+ vss Y N_M3_d N_M6_d N_M7_s N_Y_1 N_Y_8 N_Y_10 N_Y_2 N_Y_14 N_Y_7 
+ PM_A2O1A1Ixp33_ASAP7_75t_SRAM%Y
Cc_14 N_Y_1 N_B_3 C=0.00120244f ;$X=0.222 $Y=0.216
Cc_15 N_Y_1 N_B_4 C=0.00121337f ;$X=0.222 $Y=0.216
Cc_16 N_Y_8 N_B_3 C=0.00950268f ;$X=0.2015 $Y=0.1975
Cc_17 N_Y_10 N_B_3 C=0.0259297f ;$X=0.2015 $Y=0.2245
Cc_18 N_Y_2 N_C_3 C=0.00118696f ;$X=0.273 $Y=0.0675
Cc_19 N_Y_1 N_C_1 C=0.00191109f ;$X=0.222 $Y=0.216
Cc_20 N_Y_1 N_C_3 C=0.00206966f ;$X=0.222 $Y=0.216
Cc_21 N_Y_10 N_C_3 C=0.0049872f ;$X=0.2015 $Y=0.2245
Cc_22 N_Y_14 N_C_4 C=0.00650237f ;$X=0.297 $Y=0.0625
Cc_23 N_Y_8 N_C_3 C=0.00966954f ;$X=0.2015 $Y=0.1975
Cc_24 N_Y_7 N_C_3 C=0.0576933f ;$X=0.2555 $Y=0.0675
Cc_25 N_Y_1 N_8_9 C=0.000692598f ;$X=0.222 $Y=0.216
Cc_26 N_Y_1 N_8_2 C=0.00106926f ;$X=0.222 $Y=0.216
Cc_27 N_Y_1 N_8_8 C=0.00294525f ;$X=0.222 $Y=0.216
X_PM_A2O1A1Ixp33_ASAP7_75t_SRAM%C vss C N_M3_g N_M7_g N_C_3 N_C_4 N_C_1 
+ PM_A2O1A1Ixp33_ASAP7_75t_SRAM%C
Cc_28 N_C_3 N_B_3 C=0.0031267f ;$X=0.243 $Y=0.0245
Cc_29 N_C_4 N_B_4 C=0.00563164f ;$X=0.243 $Y=0.0817
X_PM_A2O1A1Ixp33_ASAP7_75t_SRAM%A2 vss A2 N_M1_g N_M5_g N_A2_4 N_A2_3 
+ PM_A2O1A1Ixp33_ASAP7_75t_SRAM%A2
Cc_30 N_A2_4 N_A1_4 C=0.00463867f ;$X=0.135 $Y=0.0985
Cc_31 N_A2_3 N_A1_3 C=0.00714645f ;$X=0.135 $Y=0.0245
* End of included file A2O1A1Ixp33_ASAP7_75t_SRAM.pex.sp.pxi
.ENDS
*
* Design:	A2O1A1O1Ixp25_ASAP7_75t_SRAM

* Created:	"Sat Jan 22 2022"
* Vendor:	"Mentor Graphics Corporation"
* Program:	"Calibre xACT 3D"
* Version:	"v2017.4_19.14"
* Corner Name: typical_27
* Nominal Temperature: 25C
* Circuit Temperature: 27C
*
* Integrated TICER reduction is not enabled.
* SHORT DELAY THRESHOLD: 2e-15
* Fill Mode: NG
* PEX REDUCE CC ABSOLUTE : 1
* PEX REDUCE CC RELATIVE : 0.01
* Delta transform mode : 344834
* .include "A2O1A1O1Ixp25_ASAP7_75t_SRAM.pex.sp.pex"

* Start of included file A2O1A1O1Ixp25_ASAP7_75t_SRAM.pex.sp.pex

.SUBCKT PM_A2O1A1O1Ixp25_ASAP7_75t_SRAM%A1 vss 13 5 9 4 3

C1 1 vss C=0.00619449f ;$X=0.135 $Y=0.135
C2 3 vss C=0.140049f ;$X=0.135 $Y=0.0245
C3 4 vss C=0.0103879f ;$X=0.135 $Y=0.098
R1 13 12 R=5.18847
R2 11 12 R=7.17059

R3 4 11 R=8.62802

R4 1 7 R=10.4265

R5 1 11 R=19.3796 ;$a=3.24e-16 $layer=V0LIG $X=0.135 $Y=0.135 $X2=0.135 $Y2=0.135

R6 9 8 R=16.4967
R7 7 8 R=6.6497

R8 6 7 R=6.6497

R9 5 6 R=16.4967

R10 5 3 R=14.6259

.ENDS

.SUBCKT PM_A2O1A1O1Ixp25_ASAP7_75t_SRAM%B vss 13 5 9 3 4

C1 1 vss C=0.00689415f ;$X=0.189 $Y=0.135
C2 3 vss C=0.157149f ;$X=0.189 $Y=0.0245
C3 4 vss C=0.0103327f ;$X=0.189 $Y=0.098
R1 13 12 R=1.22425
R2 11 12 R=3.20636

R3 4 11 R=8.62802

R4 1 7 R=10.4265

R5 1 11 R=19.3796 ;$a=3.24e-16 $layer=V0LIG $X=0.189 $Y=0.135 $X2=0.189 $Y2=0.135

R6 9 8 R=16.4967
R7 7 8 R=6.6497

R8 6 7 R=6.6497

R9 5 6 R=16.4967

R10 5 3 R=14.6259

.ENDS

.SUBCKT PM_A2O1A1O1Ixp25_ASAP7_75t_SRAM%D vss 4 8 14 3 5 1

C1 1 vss C=0.00493735f ;$X=0.405 $Y=0.135
C2 3 vss C=0.0923423f ;$X=0.405 $Y=0.0245
C3 4 vss C=0.00151406f ;$X=0.35 $Y=0.136
C4 5 vss C=0.003077f ;$X=0.351 $Y=0.0985
C5 6 vss C=0.00668028f ;$X=0.351 $Y=0.1725
C6 7 vss C=0.00265786f ;$X=0.3915 $Y=0.136
R1 4 19 R=4.06646
R2 4 5 R=7.56431

R3 4 6 R=7.33112

R4 7 18 R=3.14806

R5 7 19 R=4.19742

R6 1 11 R=6.54019

R7 1 18 R=19.3796 ;$a=3.24e-16 $layer=V0LIG $X=0.405 $Y=0.135 $X2=0.405 $Y2=0.136

R8 14 13 R=14.6259
R9 12 13 R=2.7211

R10 11 12 R=5.79936

R11 10 11 R=5.79936

R12 9 10 R=2.7211

R13 8 9 R=14.6259

R14 8 3 R=14.6259

.ENDS

.SUBCKT PM_A2O1A1O1Ixp25_ASAP7_75t_SRAM%Y vss 26 18 28 37 10 16 2 15 12 11

C1 1 vss C=0.00940297f ;$X=0.27 $Y=0.0675
C2 2 vss C=0.00827406f ;$X=0.378 $Y=0.0675
C3 3 vss C=0.00959517f ;$X=0.432 $Y=0.2025
C4 10 vss C=0.0385935f ;$X=0.2555 $Y=0.0675
C5 11 vss C=0.0385606f ;$X=0.38 $Y=0.0675
C6 12 vss C=0.0386105f ;$X=0.4175 $Y=0.2025
C7 13 vss C=0.00598457f ;$X=0.459 $Y=0.234
C8 14 vss C=0.00310069f ;$X=0.459 $Y=0.0357
C9 15 vss C=0.0175964f ;$X=0.27 $Y=0.036
C10 16 vss C=0.00808367f ;$X=0.459 $Y=0.0452
R1 12 3 R=0.154321
R2 37 12 R=0.0308642

R3 3 34 R=19.3796 ;$a=3.24e-16 $layer=V0LISD $X=0.432 $Y=0.2025 $X2=0.432 $Y2=0.234

R4 34 35 R=3.14806
R5 13 33 R=3.83327

R6 13 35 R=1.96775

R7 32 33 R=9.32759

R8 31 32 R=8.51143

R9 30 31 R=8.74462

R10 29 30 R=9.50248

R11 16 29 R=2.91487

R12 26 16 R=0.0838085

R13 28 27 R=0.0308642

R14 11 27 R=0.154321

R15 26 14 R=0.9184

R16 2 22 R=19.3796

R17 26 25 R=3.17357

R18 24 25 R=4.19742

R19 23 24 R=4.19742

R20 22 23 R=5.24677

R21 21 22 R=3.14806

R22 20 21 R=3.14806

R23 19 20 R=9.44419

R24 15 19 R=9.44419

R25 1 15 R=19.3796 ;$a=3.24e-16 $layer=V0LISD $X=0.27 $Y=0.0675 $X2=0.27 $Y2=0.036

R26 10 1 R=0.154321
R27 18 10 R=0.0308642

R28 2 11 R=1e-05 ;$l=2e-09 $X=0.378 $Y=0.0675 $X2=0.38 $Y2=0.0675

.ENDS
.SUBCKT PM_A2O1A1O1Ixp25_ASAP7_75t_SRAM%A2 vss 13 5 11 3

C1 1 vss C=0.00751168f ;$X=0.081 $Y=0.135
C2 3 vss C=0.142429f ;$X=0.081 $Y=0.0245
C3 4 vss C=0.0133711f ;$X=0.081 $Y=0.0757
R1 14 15 R=7.17059
R2 13 14 R=5.18847

R3 13 4 R=1.45744

R4 1 8 R=10.4265

R5 1 15 R=19.3796 ;$a=3.24e-16 $layer=V0LIG $X=0.081 $Y=0.135 $X2=0.081 $Y2=0.135

R6 11 10 R=14.6259
R7 9 10 R=2.7211

R8 8 9 R=5.79936

R9 7 8 R=5.79936

R10 6 7 R=2.7211

R11 5 6 R=14.6259

R12 5 3 R=14.6259

.ENDS

.SUBCKT PM_A2O1A1O1Ixp25_ASAP7_75t_SRAM%C vss 13 5 11 3 4

C1 1 vss C=0.00627627f ;$X=0.243 $Y=0.135
C2 3 vss C=0.12373f ;$X=0.243 $Y=0.0245
C3 4 vss C=0.012146f ;$X=0.243 $Y=0.0942
R1 14 15 R=2.85657
R2 13 14 R=0.874462

R3 13 4 R=5.77145

R4 1 8 R=10.4265

R5 1 15 R=19.3796 ;$a=3.24e-16 $layer=V0LIG $X=0.243 $Y=0.135 $X2=0.243 $Y2=0.135

R6 11 10 R=14.6259
R7 9 10 R=2.7211

R8 8 9 R=5.79936

R9 7 8 R=5.79936

R10 6 7 R=2.7211

R11 5 6 R=14.6259

R12 5 3 R=14.6259

.ENDS

* End of included file A2O1A1O1Ixp25_ASAP7_75t_SRAM.pex.sp.pex


*



.SUBCKT A2O1A1O1Ixp25_ASAP7_75t_SRAM VSS VDD A2 A1 B C D Y
*
* VSS VSS
* VDD VDD
* A2 A2
* A1 A1
* B B
* C C
* D D
* Y Y
*
*
M0 noxref_12 N_M0_g noxref_8 VSS nmos_sram L=2e-08 NFIN=3

M1 VSS N_M1_g noxref_12 VSS nmos_sram L=2e-08 NFIN=3 ;$X=0.125 $Y=0.027

M2 noxref_8 N_M2_g VSS VSS nmos_sram L=2e-08 NFIN=3 ;$X=0.179 $Y=0.027
M3 N_M3_d N_M3_g noxref_8 VSS nmos_sram L=2e-08 NFIN=3
M4 VSS N_M4_g N_M4_s VSS nmos_sram L=2e-08 NFIN=3 ;$X=0.395 $Y=0.027

M5 VDD N_M5_g noxref_9 VDD pmos_sram L=2e-08 NFIN=3 ;$X=0.071 $Y=0.162
M6 noxref_9 N_M6_g VDD VDD pmos_sram L=2e-08 NFIN=3 ;$X=0.125 $Y=0.162
M7 noxref_10 N_M7_g noxref_9 VDD pmos_sram L=2e-08 NFIN=3
M8 VDD N_M8_g noxref_10 VDD pmos_sram L=2e-08 NFIN=3 ;$X=0.233 $Y=0.162

M9 N_M9_d N_M9_g noxref_10 VDD pmos_sram L=2e-08 NFIN=3
* .include "A2O1A1O1Ixp25_ASAP7_75t_SRAM.pex.sp.pxi"



* Start of included file A2O1A1O1Ixp25_ASAP7_75t_SRAM.pex.sp.pxi

X_PM_A2O1A1O1Ixp25_ASAP7_75t_SRAM%A1 vss A1 N_M1_g N_M6_g N_A1_4 N_A1_3 
+ PM_A2O1A1O1Ixp25_ASAP7_75t_SRAM%A1
Cc_1 N_A1_4 N_A2_3 C=0.00462981f ;$X=0.135 $Y=0.098
Cc_2 N_A1_3 N_A2_3 C=0.00703399f ;$X=0.135 $Y=0.0245
X_PM_A2O1A1O1Ixp25_ASAP7_75t_SRAM%B vss B N_M2_g N_M7_g N_B_3 N_B_4 
+ PM_A2O1A1O1Ixp25_ASAP7_75t_SRAM%B
Cc_3 N_B_3 N_A1_3 C=0.00316687f ;$X=0.189 $Y=0.0245
Cc_4 N_B_4 N_A1_4 C=0.0062617f ;$X=0.189 $Y=0.098
X_PM_A2O1A1O1Ixp25_ASAP7_75t_SRAM%D vss D N_M4_g N_M9_g N_D_3 N_D_5 N_D_1 
+ PM_A2O1A1O1Ixp25_ASAP7_75t_SRAM%D
X_PM_A2O1A1O1Ixp25_ASAP7_75t_SRAM%Y 
+ vss Y N_M3_d N_M4_s N_M9_d N_Y_10 N_Y_16 N_Y_2 N_Y_15 N_Y_12 N_Y_11 
+ PM_A2O1A1O1Ixp25_ASAP7_75t_SRAM%Y
Cc_5 N_Y_10 N_C_4 C=0.00149718f ;$X=0.2555 $Y=0.0675
Cc_6 N_Y_10 N_C_3 C=0.0380581f ;$X=0.2555 $Y=0.0675
Cc_7 N_Y_16 N_D_3 C=0.00151745f ;$X=0.459 $Y=0.0452
Cc_8 N_Y_2 N_D_3 C=0.00163715f ;$X=0.378 $Y=0.0675
Cc_9 N_Y_15 N_D_5 C=0.00164155f ;$X=0.27 $Y=0.036
Cc_10 N_Y_12 N_D_1 C=0.00174214f ;$X=0.4175 $Y=0.2025
Cc_11 N_Y_2 N_D_5 C=0.00244685f ;$X=0.378 $Y=0.0675
Cc_12 N_Y_11 N_D_3 C=0.0149815f ;$X=0.38 $Y=0.0675
Cc_13 N_Y_12 N_D_3 C=0.0589661f ;$X=0.4175 $Y=0.2025
X_PM_A2O1A1O1Ixp25_ASAP7_75t_SRAM%A2 vss A2 N_M0_g N_M5_g N_A2_3 
+ PM_A2O1A1O1Ixp25_ASAP7_75t_SRAM%A2
X_PM_A2O1A1O1Ixp25_ASAP7_75t_SRAM%C vss C N_M3_g N_M8_g N_C_3 N_C_4 
+ PM_A2O1A1O1Ixp25_ASAP7_75t_SRAM%C
Cc_14 N_C_3 N_B_3 C=0.00333387f ;$X=0.243 $Y=0.0245
Cc_15 N_C_4 N_B_4 C=0.00634065f ;$X=0.243 $Y=0.0942
* End of included file A2O1A1O1Ixp25_ASAP7_75t_SRAM.pex.sp.pxi

.ENDS
*
* Design:	AND2x2_ASAP7_75t_SRAM

* Created:	"Sat Jan 22 2022"
* Vendor:	"Mentor Graphics Corporation"
* Program:	"Calibre xACT 3D"
* Version:	"v2017.4_19.14"
* Corner Name: typical_27
* Nominal Temperature: 25C
* Circuit Temperature: 27C
*
* Integrated TICER reduction is not enabled.
* SHORT DELAY THRESHOLD: 2e-15
* Fill Mode: NG
* PEX REDUCE CC ABSOLUTE : 1
* PEX REDUCE CC RELATIVE : 0.01
* Delta transform mode : 344834
* .include "AND2x2_ASAP7_75t_SRAM.pex.sp.pex"

* Start of included file AND2x2_ASAP7_75t_SRAM.pex.sp.pex

.SUBCKT PM_AND2x2_ASAP7_75t_SRAM%7 vss 2 3 1

C1 1 vss C=0.000888387f ;$X=0.108 $Y=0.0675
R1 2 1 R=0.209877
R2 3 1 R=0.209877

.ENDS

.SUBCKT PM_AND2x2_ASAP7_75t_SRAM%5 
+ vss 22 26 38 42 61 62 64 3 4 17 19 11 12 18 15 1 20 21 9 10 16 14
C1 1 vss C=0.00723184f ;$X=0.1795 $Y=0.1345

C2 3 vss C=0.00860088f ;$X=0.0665 $Y=0.0675
C3 4 vss C=0.00809058f ;$X=0.108 $Y=0.216
C4 9 vss C=0.0840361f ;$X=0.189 $Y=0.0245
C5 10 vss C=0.0867121f ;$X=0.243 $Y=0.1345
C6 11 vss C=0.0419198f ;$X=0.056 $Y=0.0675
C7 12 vss C=0.00656204f ;$X=0.0935 $Y=0.216
C8 13 vss C=0.00274608f ;$X=0.079 $Y=0.0305
C9 14 vss C=0.00287459f ;$X=0.171 $Y=0.036
C10 15 vss C=0.00107909f ;$X=0.171 $Y=0.135
C11 16 vss C=0.00285194f ;$X=0.171 $Y=0.234
C12 17 vss C=0.00155062f ;$X=0.079 $Y=0.054
C13 18 vss C=0.00797342f ;$X=0.153 $Y=0.036
C14 19 vss C=0.00787453f ;$X=0.153 $Y=0.234
C15 20 vss C=0.00302753f ;$X=0.171 $Y=0.106
C16 21 vss C=0.0030883f ;$X=0.171 $Y=0.164
R1 64 63 R=0.0308642
R2 11 63 R=0.154321

R3 3 57 R=19.3796

R4 62 60 R=0.0462963

R5 4 60 R=0.268519

R6 12 4 R=0.268519

R7 61 12 R=0.0462963

R8 56 57 R=2.09871

R9 17 56 R=2.91487

R10 17 55 R=2.65995

R11 4 53 R=19.3796 ;$a=3.24e-16 $layer=V0LISD $X=0.108 $Y=0.216 $X2=0.108 $Y2=0.234

R12 13 50 R=1.05672
R13 13 55 R=0.9184

R14 53 54 R=3.14806

R15 51 54 R=3.14806

R16 19 51 R=4.19742

R17 49 50 R=4.43061

R18 48 49 R=5.82974

R19 18 48 R=4.19742

R20 16 47 R=3.36447

R21 16 19 R=2.5483

R22 14 45 R=3.36447

R23 14 18 R=2.5483

R24 46 47 R=4.78039

R25 21 46 R=6.52931

R26 44 45 R=4.78039

R27 20 44 R=6.52931

R28 42 41 R=14.6259

R29 40 41 R=2.7211

R30 38 39 R=14.6259

R31 36 39 R=2.55104

R32 10 32 R=6.4735

R33 10 36 R=5.80786

R34 10 40 R=5.97793

R35 15 34 R=3.01711

R36 15 20 R=5.5822

R37 15 21 R=5.5822

R38 31 32 R=10.1596

R39 29 31 R=7.91162

R40 28 29 R=2.24801

R41 28 34 R=19.3796

R42 1 28 R=2.24801

R43 26 25 R=16.4967

R44 24 25 R=6.82827

R45 24 29 R=4.22548

R46 24 28 R=6.23686

R47 23 24 R=6.6582

R48 22 23 R=16.3266

R49 22 9 R=14.6259

R50 3 11 R=1e-05 ;$l=1.05e-08 $X=0.0665 $Y=0.0675 $X2=0.056 $Y2=0.0675

.ENDS
.SUBCKT PM_AND2x2_ASAP7_75t_SRAM%Y vss 27 20 21 34 35 7 1 13 14 8

C1 1 vss C=0.00727254f ;$X=0.216 $Y=0.0675
C2 2 vss C=0.00730926f ;$X=0.216 $Y=0.2025
C3 7 vss C=0.00444274f ;$X=0.2015 $Y=0.0675
C4 8 vss C=0.00438557f ;$X=0.2015 $Y=0.2025
C5 9 vss C=0.00255684f ;$X=0.216 $Y=0.036
C6 10 vss C=0.00255684f ;$X=0.216 $Y=0.234
C7 11 vss C=0.00290883f ;$X=0.297 $Y=0.036
C8 12 vss C=0.00290883f ;$X=0.297 $Y=0.234
C9 13 vss C=0.00101719f ;$X=0.216 $Y=0.054
C10 14 vss C=0.00120214f ;$X=0.216 $Y=0.1865
C11 15 vss C=0.00591835f ;$X=0.2565 $Y=0.036
C12 16 vss C=0.00592796f ;$X=0.2565 $Y=0.234
C13 17 vss C=0.00837151f ;$X=0.297 $Y=0.0655
R1 35 33 R=0.0308642
R2 2 33 R=0.179012

R3 8 2 R=0.179012

R4 34 8 R=0.0308642

R5 2 30 R=19.3796 ;$a=3.24e-16 $layer=V0LISD $X=0.216 $Y=0.2025 $X2=0.216 $Y2=0.198

R6 30 31 R=4.19742
R7 14 30 R=2.68168

R8 10 16 R=7.79507

R9 10 31 R=2.5483

R10 12 29 R=5.22999

R11 12 16 R=7.79507

R12 28 29 R=8.97781

R13 27 28 R=4.31401

R14 27 26 R=0.46638

R15 25 26 R=2.44849

R16 24 25 R=6.7625

R17 17 24 R=9.44419

R18 11 15 R=7.79507

R19 11 17 R=5.22999

R20 9 13 R=2.5483

R21 9 15 R=7.79507

R22 13 22 R=4.19742

R23 1 22 R=19.3796

R24 21 19 R=0.0308642

R25 1 19 R=0.179012

R26 7 1 R=0.179012

R27 20 7 R=0.0308642

.ENDS

.SUBCKT PM_AND2x2_ASAP7_75t_SRAM%B vss 20 8 14 7 3 1 6 5

C1 1 vss C=0.00251142f ;$X=0.075 $Y=0.1345
C2 3 vss C=0.0389823f ;$X=0.081 $Y=0.0245
C3 4 vss C=0.0013873f ;$X=0.027 $Y=0.135
C4 5 vss C=0.00997878f ;$X=0.027 $Y=0.106
C5 6 vss C=0.0124634f ;$X=0.027 $Y=0.172
C6 7 vss C=0.00238999f ;$X=0.0485 $Y=0.135
R1 4 7 R=3.83327
R2 4 5 R=5.5822

R3 4 6 R=7.44771

R4 20 7 R=3.96423

R5 20 18 R=19.3796 ;$a=3.24e-16 $layer=V0LIG $X=0.073 $Y=0.133 $X2=0.066 $Y2=0.1345

R6 1 16 R=2.36633
R7 1 18 R=3.23868

R8 14 13 R=14.6259

R9 12 13 R=7.31297

R10 11 12 R=5.97793

R11 11 16 R=5.52696

R12 10 11 R=5.80786

R13 9 10 R=2.55104

R14 8 9 R=14.6259

R15 8 3 R=14.6259

.ENDS

.SUBCKT PM_AND2x2_ASAP7_75t_SRAM%A vss 4 5 9 3 1

C1 1 vss C=0.00732324f ;$X=0.135 $Y=0.135
C2 3 vss C=0.0864924f ;$X=0.135 $Y=0.0245
C3 4 vss C=0.00456996f ;$X=0.135 $Y=0.133
R1 1 7 R=6.54019
R2 4 1 R=19.3796 ;$a=3.24e-16 $layer=V0LIG $X=0.135 $Y=0.133 $X2=0.135 $Y2=0.135

R3 9 8 R=16.4967
R4 7 8 R=11.2416

R5 6 7 R=6.6497

R6 5 6 R=16.4967

R7 5 3 R=14.6259

.ENDS

* End of included file AND2x2_ASAP7_75t_SRAM.pex.sp.pex


*



.SUBCKT AND2x2_ASAP7_75t_SRAM VSS VDD B A Y
*
* VSS VSS
* VDD VDD
* B B
* A A
* Y Y
*
*
M0 N_M0_d N_M0_g N_M0_s VSS nmos_sram L=2e-08 NFIN=3 ;$X=0.071 $Y=0.027

M1 VSS N_M1_g N_M1_s VSS nmos_sram L=2e-08 NFIN=3 ;$X=0.125 $Y=0.027
M2 N_M2_d N_M2_g VSS VSS nmos_sram L=2e-08 NFIN=3 ;$X=0.179 $Y=0.027
M3 N_M3_d N_M3_g VSS VSS nmos_sram L=2e-08 NFIN=3 ;$X=0.233 $Y=0.027
M4 N_M4_d N_M4_g VDD VDD pmos_sram L=2e-08 NFIN=2 ;$X=0.071 $Y=0.189
M5 VDD N_M5_g N_M5_s VDD pmos_sram L=2e-08 NFIN=2 ;$X=0.125 $Y=0.189
M6 N_M6_d N_M6_g VDD VDD pmos_sram L=2e-08 NFIN=3 ;$X=0.179 $Y=0.162
M7 N_M7_d N_M7_g VDD VDD pmos_sram L=2e-08 NFIN=3 ;$X=0.233 $Y=0.162
* .include "AND2x2_ASAP7_75t_SRAM.pex.sp.pxi"


* Start of included file AND2x2_ASAP7_75t_SRAM.pex.sp.pxi

X_PM_AND2x2_ASAP7_75t_SRAM%7 vss N_M0_d N_M1_s N_7_1 PM_AND2x2_ASAP7_75t_SRAM%7
Cc_1 N_7_1 N_B_3 C=0.0167803f ;$X=0.108 $Y=0.0675
Cc_2 N_7_1 N_A_3 C=0.0167765f ;$X=0.108 $Y=0.0675
X_PM_AND2x2_ASAP7_75t_SRAM%5 
+ vss N_M2_g N_M6_g N_M3_g N_M7_g N_M4_d N_M5_s N_M0_s N_5_3 N_5_4 N_5_17 N_5_19 N_5_11 N_5_12 N_5_18 N_5_15 N_5_1 N_5_20 N_5_21 N_5_9 N_5_10 N_5_16 N_5_14 
+ PM_AND2x2_ASAP7_75t_SRAM%5
Cc_3 N_5_3 N_B_3 C=0.00484061f ;$X=0.0665 $Y=0.0675
Cc_4 N_5_4 N_B_3 C=0.000576498f ;$X=0.108 $Y=0.216
Cc_5 N_5_17 N_B_7 C=0.000747759f ;$X=0.079 $Y=0.054
Cc_6 N_5_3 N_B_1 C=0.000764051f ;$X=0.0665 $Y=0.0675
Cc_7 N_5_19 N_B_6 C=0.00104193f ;$X=0.153 $Y=0.234
Cc_8 N_5_11 N_B_1 C=0.00236527f ;$X=0.056 $Y=0.0675
Cc_9 N_5_17 N_B_5 C=0.00360146f ;$X=0.079 $Y=0.054
Cc_10 N_5_12 N_B_3 C=0.0105385f ;$X=0.0935 $Y=0.216
Cc_11 N_5_11 N_B_3 C=0.0511002f ;$X=0.056 $Y=0.0675
Cc_12 N_5_4 N_A_3 C=0.000644429f ;$X=0.108 $Y=0.216
Cc_13 N_5_18 A C=0.000805286f ;$X=0.153 $Y=0.036
Cc_14 N_5_15 N_A_1 C=0.000829186f ;$X=0.171 $Y=0.135
Cc_15 N_5_19 A C=0.000834376f ;$X=0.153 $Y=0.234
Cc_16 N_5_3 N_A_3 C=0.00089437f ;$X=0.0665 $Y=0.0675
Cc_17 N_5_1 N_A_1 C=0.00168784f ;$X=0.1795 $Y=0.1345
Cc_18 N_5_20 A C=0.00200781f ;$X=0.171 $Y=0.106
Cc_19 N_5_21 A C=0.00214454f ;$X=0.171 $Y=0.164
Cc_20 N_5_12 N_A_3 C=0.0105186f ;$X=0.0935 $Y=0.216
Cc_21 N_5_15 A C=0.00828132f ;$X=0.171 $Y=0.135
Cc_22 N_5_9 N_A_3 C=0.0192937f ;$X=0.189 $Y=0.0245
X_PM_AND2x2_ASAP7_75t_SRAM%Y 
+ vss Y N_M2_d N_M3_d N_M6_d N_M7_d N_Y_7 N_Y_1 N_Y_13 N_Y_14 N_Y_8 
+ PM_AND2x2_ASAP7_75t_SRAM%Y
Cc_23 N_Y_7 N_5_1 C=0.00643454f ;$X=0.2015 $Y=0.0675
Cc_24 N_Y_7 N_5_15 C=0.000763371f ;$X=0.2015 $Y=0.0675
Cc_25 N_Y_7 N_5_10 C=0.0587321f ;$X=0.2015 $Y=0.0675
Cc_26 N_Y_7 N_5_16 C=0.00109083f ;$X=0.2015 $Y=0.0675
Cc_27 N_Y_7 N_5_14 C=0.00109085f ;$X=0.2015 $Y=0.0675
Cc_28 N_Y_1 N_5_9 C=0.00187894f ;$X=0.216 $Y=0.0675
Cc_29 N_Y_13 N_5_20 C=0.00290653f ;$X=0.216 $Y=0.054
Cc_30 N_Y_14 N_5_21 C=0.00291999f ;$X=0.216 $Y=0.1865
Cc_31 N_Y_8 N_5_9 C=0.028747f ;$X=0.2015 $Y=0.2025
Cc_32 N_Y_7 N_5_9 C=0.0494005f ;$X=0.2015 $Y=0.0675
X_PM_AND2x2_ASAP7_75t_SRAM%B vss B N_M0_g N_M4_g N_B_7 N_B_3 N_B_1 N_B_6 N_B_5 
+ PM_AND2x2_ASAP7_75t_SRAM%B
X_PM_AND2x2_ASAP7_75t_SRAM%A vss A N_M1_g N_M5_g N_A_3 N_A_1 
+ PM_AND2x2_ASAP7_75t_SRAM%A
Cc_33 A N_B_7 C=0.00192195f ;$X=0.135 $Y=0.133
Cc_34 N_A_3 N_B_3 C=0.0089379f ;$X=0.135 $Y=0.0245
* End of included file AND2x2_ASAP7_75t_SRAM.pex.sp.pxi

.ENDS
*
* Design:	AND2x4_ASAP7_75t_SRAM

* Created:	"Sat Jan 22 2022"
* Vendor:	"Mentor Graphics Corporation"
* Program:	"Calibre xACT 3D"
* Version:	"v2017.4_19.14"
* Corner Name: typical_27
* Nominal Temperature: 25C
* Circuit Temperature: 27C
*
* Integrated TICER reduction is not enabled.
* SHORT DELAY THRESHOLD: 2e-15
* Fill Mode: NG
* PEX REDUCE CC ABSOLUTE : 1
* PEX REDUCE CC RELATIVE : 0.01
* Delta transform mode : 344834
* .include "AND2x4_ASAP7_75t_SRAM.pex.sp.pex"

* Start of included file AND2x4_ASAP7_75t_SRAM.pex.sp.pex

.SUBCKT PM_AND2x4_ASAP7_75t_SRAM%7__2 vss 2 3 1

C1 1 vss C=0.000802927f ;$X=0.108 $Y=0.0675
R1 2 1 R=0.209877
R2 3 1 R=0.209877

.ENDS

.SUBCKT PM_AND2x4_ASAP7_75t_SRAM%8 vss 2 3 1

C1 1 vss C=0.000749489f ;$X=0.216 $Y=0.0675
R1 2 1 R=0.209877
R2 3 1 R=0.209877

.ENDS

.SUBCKT PM_AND2x4_ASAP7_75t_SRAM%Y 
+ vss 31 24 25 36 37 44 45 48 49 15 4 1 20 2 14 13 16
C1 1 vss C=0.00888447f ;$X=0.324 $Y=0.0675

C2 2 vss C=0.00838764f ;$X=0.324 $Y=0.2025
C3 3 vss C=0.00834147f ;$X=0.432 $Y=0.0675
C4 4 vss C=0.00834147f ;$X=0.432 $Y=0.2025
C5 13 vss C=0.00433565f ;$X=0.3095 $Y=0.0675
C6 14 vss C=0.00427831f ;$X=0.4175 $Y=0.0675
C7 15 vss C=0.00432989f ;$X=0.3095 $Y=0.2025
C8 16 vss C=0.00427716f ;$X=0.4175 $Y=0.2025
C9 17 vss C=0.00300999f ;$X=0.459 $Y=0.036
C10 18 vss C=0.00300999f ;$X=0.459 $Y=0.234
C11 19 vss C=0.0138896f ;$X=0.3125 $Y=0.036
C12 20 vss C=0.0126525f ;$X=0.3125 $Y=0.234
C13 21 vss C=0.00794763f ;$X=0.459 $Y=0.083
R1 49 47 R=0.0308642
R2 4 47 R=0.179012

R3 16 4 R=0.179012

R4 48 16 R=0.0308642

R5 45 43 R=0.0308642

R6 2 43 R=0.179012

R7 15 2 R=0.179012

R8 44 15 R=0.0308642

R9 4 40 R=19.3796 ;$a=3.24e-16 $layer=V0LISD $X=0.432 $Y=0.2025 $X2=0.432 $Y2=0.234

R10 2 38 R=19.3796
R11 40 41 R=3.14806

R12 39 40 R=12.5922

R13 38 39 R=12.5922

R14 20 38 R=2.68168

R15 18 33 R=3.36447

R16 18 41 R=1.49895

R17 37 35 R=0.0308642

R18 3 35 R=0.179012

R19 14 3 R=0.179012

R20 36 14 R=0.0308642

R21 32 33 R=8.97781

R22 31 32 R=6.17953

R23 31 30 R=3.14806

R24 21 30 R=11.8927

R25 3 28 R=19.3796

R26 17 29 R=1.49895

R27 17 21 R=9.31081

R28 28 29 R=3.14806

R29 27 28 R=12.5922

R30 26 27 R=12.5922

R31 19 26 R=2.68168

R32 1 26 R=19.3796

R33 25 23 R=0.0308642

R34 1 23 R=0.179012

R35 13 1 R=0.179012

R36 24 13 R=0.0308642

.ENDS

.SUBCKT PM_AND2x4_ASAP7_75t_SRAM%5 
+ vss 29 33 49 52 55 58 62 66 89 90 93 94 97 98 3 16 18 17 5 1 4 23 27 28 20 24 25 12 19 14 13 22 15
C1 1 vss C=0.0172903f ;$X=0.2875 $Y=0.135

C2 3 vss C=0.00805097f ;$X=0.108 $Y=0.216
C3 4 vss C=0.00377094f ;$X=0.162 $Y=0.0675
C4 5 vss C=0.00769255f ;$X=0.216 $Y=0.216
C5 12 vss C=0.0853715f ;$X=0.297 $Y=0.0245
C6 13 vss C=0.0806004f ;$X=0.351 $Y=0.135
C7 14 vss C=0.0811507f ;$X=0.405 $Y=0.135
C8 15 vss C=0.0899152f ;$X=0.459 $Y=0.135
C9 16 vss C=0.00864057f ;$X=0.1475 $Y=0.0675
C10 17 vss C=0.00803374f ;$X=0.0935 $Y=0.216
C11 18 vss C=0.00805576f ;$X=0.2015 $Y=0.216
C12 19 vss C=0.000412505f ;$X=0.1885 $Y=0.191
C13 20 vss C=0.000456287f ;$X=0.189 $Y=0.073
C14 21 vss C=0.00633266f ;$X=0.189 $Y=0.234
C15 22 vss C=0.00133922f ;$X=0.297 $Y=0.191
C16 23 vss C=0.0112628f ;$X=0.1795 $Y=0.234
C17 24 vss C=0.00236729f ;$X=0.1795 $Y=0.073
C18 25 vss C=0.00309067f ;$X=0.189 $Y=0.166
C19 26 vss C=0.000693055f ;$X=0.189 $Y=0.2125
C20 27 vss C=0.00438957f ;$X=0.27 $Y=0.191
C21 28 vss C=0.00327788f ;$X=0.297 $Y=0.1235
R1 98 96 R=0.0462963
R2 3 96 R=0.268519

R3 17 3 R=0.268519

R4 97 17 R=0.0462963

R5 94 92 R=0.0308642

R6 4 92 R=0.179012

R7 16 4 R=0.179012

R8 93 16 R=0.0308642

R9 90 88 R=0.0462963

R10 5 88 R=0.268519

R11 18 5 R=0.268519

R12 89 18 R=0.0462963

R13 3 86 R=19.3796 ;$a=3.24e-16 $layer=V0LISD $X=0.108 $Y=0.216 $X2=0.107 $Y2=0.234

R14 4 77 R=19.3796
R15 5 74 R=19.3796 ;$a=3.24e-16 $layer=V0LISD $X=0.216 $Y=0.216 $X2=0.216 $Y2=0.234

R16 83 84 R=1.28254
R17 83 86 R=2.09871

R18 82 84 R=3.14806

R19 81 82 R=6.17953

R20 23 81 R=4.19742

R21 77 78 R=3.03147

R22 24 78 R=1.04935

R23 73 74 R=3.14806

R24 21 26 R=3.83327

R25 21 73 R=1.96775

R26 21 23 R=1.03499

R27 20 72 R=3.36447

R28 20 24 R=0.56619

R29 71 72 R=7.92845

R30 25 71 R=8.74462

R31 19 70 R=4.79259

R32 19 25 R=4.67599

R33 19 26 R=3.85983

R34 69 70 R=4.19742

R35 68 69 R=2.44849

R36 27 68 R=6.29612

R37 22 47 R=4.18063

R38 22 27 R=4.64701

R39 66 65 R=14.6259

R40 64 65 R=2.7211

R41 62 63 R=14.6259

R42 60 63 R=2.7211

R43 15 43 R=6.54019

R44 15 60 R=5.79936

R45 15 64 R=5.79936

R46 58 57 R=16.4967

R47 55 56 R=16.4967

R48 14 41 R=6.54019

R49 14 56 R=6.6497

R50 14 57 R=6.6497

R51 52 51 R=16.4967

R52 49 50 R=16.4967

R53 13 39 R=6.54019

R54 13 50 R=6.6497

R55 13 51 R=6.6497

R56 46 47 R=4.43061

R57 45 46 R=2.79828

R58 28 45 R=2.68168

R59 42 43 R=12.6539

R60 41 42 R=12.6539

R61 40 41 R=12.6539

R62 39 40 R=12.6539

R63 38 39 R=12.6539

R64 36 38 R=10.1729

R65 35 36 R=2.48102

R66 35 45 R=19.3796 ;$a=3.24e-16 $layer=V0LIG $X=0.297 $Y=0.135 $X2=0.297 $Y2=0.135

R67 1 35 R=2.48102
R68 33 32 R=16.4967

R69 31 32 R=6.6497

R70 31 36 R=4.05918

R71 31 35 R=6.27904

R72 30 31 R=6.6497

R73 29 30 R=16.4967

R74 29 12 R=14.6259

.ENDS

.SUBCKT PM_AND2x4_ASAP7_75t_SRAM%B vss 26 6 10 19 22 1 5 3 4

C1 1 vss C=0.0107329f ;$X=0.189 $Y=0.135
C2 3 vss C=0.0393767f ;$X=0.135 $Y=0.135
C3 4 vss C=0.0395223f ;$X=0.189 $Y=0.0245
C4 5 vss C=0.00586229f ;$X=0.135 $Y=0.1165
R1 26 25 R=0.991056
R2 24 25 R=2.97317

R3 5 24 R=4.31401

R4 22 21 R=16.8368

R5 19 20 R=16.8368

R6 3 14 R=6.69299

R7 3 20 R=6.27555

R8 3 21 R=10.8674

R9 14 15 R=3.67195

R10 14 24 R=19.3796 ;$a=3.24e-16 $layer=V0LIG $X=0.135 $Y=0.135 $X2=0.135 $Y2=0.135

R11 12 15 R=26.4685
R12 1 8 R=7.07951

R13 1 12 R=30.1405

R14 10 9 R=16.8368

R15 8 9 R=10.8674

R16 7 8 R=6.27555

R17 6 7 R=16.8368

R18 6 4 R=14.6259

.ENDS
